Circuit: * C:\Users\Laura y Miguel\Desktop\MIGUEL\Cursos\ContextualElectronicsRepository\CurrentSinkOrSwim\SPICE\CurrentSink.asc

WARNING: Specified period is not longer than the sum of Trise, Tfall, and Ton for v1.  Increasing period to 3
Direct Newton iteration failed to find .op point.  (Use ".option noopiter" to skip.)
Starting Gmin stepping
Gmin = 10
Gmin = 1.07374
Gmin = 0.115292
Gmin = 0.0123794
Gmin = 0.00132923
Gmin = 0.000142725
Gmin = 1.5325e-005
Gmin = 1.6455e-006
Gmin = 1.76685e-007
Gmin = 1.89714e-008
Gmin = 2.03704e-009
Gmin = 2.18725e-010
Gmin = 2.34854e-011
Gmin = 2.52173e-012
Gmin = 2.70769e-013
Gmin = 0
Gmin stepping succeeded in finding the operating point.


Date: Tue Sep 01 19:04:33 2015
Total elapsed time: 0.103 seconds.

tnom = 27
temp = 27
method = modified trap
totiter = 3352
traniter = 2916
tranpoints = 1186
accept = 1147
rejected = 39
matrix size = 19
fillins = 3
solver = Normal
Matrix Compiler1: 808 bytes object code size  0.4/0.2/[0.1]
Matrix Compiler2:     127 opcodes  0.3/[0.3]/0.7


